Circuit: * C:\Users\Dillo\Documents\UCT\First Year\1st Semester\MEC1003\Altium\Final Assignment\Filthy_Dirty_PWM_Driver\2nd Attempt\Simulation.asc

Direct Newton iteration for .op point succeeded.

Date: Sun May 08 20:13:23 2016
Total elapsed time: 0.087 seconds.

tnom = 27
temp = 27
method = modified trap
totiter = 6892
traniter = 6864
tranpoints = 2051
accept = 1808
rejected = 243
matrix size = 16
fillins = 2
solver = Normal
Matrix Compiler1: 644 bytes object code size  0.3/0.2/[0.1]
Matrix Compiler2: 990 bytes object code size  0.2/0.2/[0.2]


